psse/psse-model-test/src/main/resources/illinois/literature-based/IEEE 118 Bus-fixed-duplicated-ids.RAW
 0,    100.00, 33, 0, 0, 60.00       / October 01, 2013 18:46:48
 08/25/93 UW ARCHIVE           100.0  1961 W IEEE 118 Bus Test Case

    1,'Riversde    ', 138.0000,2,   1,   1,   1,0.95500,  10.9828
    2,'Pokagon     ', 138.0000,1,   1,   1,   1,0.97139,  11.5228
    3,'HickryCk    ', 138.0000,1,   1,   1,   1,0.96769,  11.8662
    4,'NwCarlsl    ', 138.0000,2,   1,   1,   1,0.99800,  15.5836
    5,'Olive       ', 138.0000,1,   1,   1,   1,1.00198,  16.0287
    6,'Kankakee    ', 138.0000,2,   1,   1,   1,0.99000,  13.3018
    7,'JacksnRd    ', 138.0000,1,   1,   1,   1,0.98933,  12.8575
    8,'Olive       ', 138.0000,2,   1,   1,   1,1.01500,  21.0492
    9,'Bequine     ', 138.0000,1,   1,   1,   1,1.04292,  28.3033
   10,'Breed       ', 138.0000,2,   1,   1,   1,1.05000,  35.8842
   11,'SouthBnd    ', 138.0000,1,   1,   1,   1,0.98509,  13.0161
   12,'TwinBrch    ', 138.0000,2,   1,   1,   1,0.99000,  12.4993
   13,'Concord     ', 138.0000,1,   1,   1,   1,0.96830,  11.6412
   14,'GoshenJt    ', 138.0000,1,   1,   1,   1,0.98359,  11.7831
   15,'FtWayne     ', 138.0000,2,   1,   1,   1,0.97000,  11.4894
   16,'N. E.       ', 138.0000,1,   1,   1,   1,0.98391,  12.1978
   17,'Sorenson    ', 138.0000,1,   1,   1,   1,0.99513,  14.0056
   18,'McKinley    ', 138.0000,2,   1,   1,   1,0.97300,  11.7920
   19,'Lincoln     ', 138.0000,2,   1,   1,   1,0.96343,  11.3074
   20,'Adams       ', 138.0000,1,   1,   1,   1,0.95806,  12.1872
   21,'Jay         ', 138.0000,1,   1,   1,   1,0.95862,  13.7751
   22,'Randolph    ', 138.0000,1,   1,   1,   1,0.96965,  16.3296
   23,'CollCrnr    ', 138.0000,1,   1,   1,   1,0.99966,  21.2503
   24,'Trenton     ', 138.0000,2,   1,   1,   1,0.99200,  21.1181
   25,'TannrsCk    ', 138.0000,2,   1,   1,   1,1.05000,  28.1844
   26,'TannrsCk    ', 138.0000,2,   1,   1,   1,1.01500,  29.9650
   27,'Madison     ', 138.0000,2,   1,   1,   1,0.96800,  15.6126
   28,'Mullin      ', 138.0000,1,   1,   1,   1,0.96157,  13.8880
   29,'Grant       ', 138.0000,1,   1,   1,   1,0.96322,  12.8956
   30,'Sorenson    ', 138.0000,1,   1,   1,   1,0.98552,  19.0402
   31,'DeerCrk     ', 138.0000,2,   1,   1,   1,0.96700,  13.0125
   32,'Delaware    ', 138.0000,2,   1,   1,   1,0.96359,  15.0600
   33,'Haviland    ', 138.0000,1,   1,   1,   1,0.97156,  10.8645
   34,'Rockhill    ', 138.0000,2,   1,   1,   1,0.98586,  11.5065
   35,'WestLima    ', 138.0000,1,   1,   1,   1,0.98068,  11.0793
   36,'Sterling    ', 138.0000,2,   1,   1,   1,0.98000,  11.0837
   37,'EastLima    ', 138.0000,1,   1,   1,   1,0.99198,  11.9703
   38,'EastLima    ', 138.0000,1,   1,   1,   1,0.96198,  17.1072
   39,'NwLibrty    ', 138.0000,1,   1,   1,   1,0.97045,   8.5978
   40,'West End    ', 138.0000,2,   1,   1,   1,0.97000,   7.5240
   41,'S.Tiffin    ', 138.0000,1,   1,   1,   1,0.96683,   7.0779
   42,'Howard      ', 138.0000,2,   1,   1,   1,0.98500,   8.6734
   43,'S.Kenton    ', 138.0000,1,   1,   1,   1,0.97848,  11.4604
   44,'WMVernon    ', 138.0000,1,   1,   1,   1,0.98501,  13.9460
   45,'N.Newark    ', 138.0000,1,   1,   1,   1,0.98665,  15.7768
   46,'W.Lancst    ', 138.0000,2,   1,   1,   1,1.00500,  18.5827
   47,'Crooksvl    ', 138.0000,1,   1,   1,   1,1.01705,  20.8051
   48,'Zanesvll    ', 138.0000,1,   1,   1,   1,1.02063,  20.0253
   49,'Philo       ', 138.0000,2,   1,   1,   1,1.02500,  21.0284
   50,'WCambrdg    ', 138.0000,1,   1,   1,   1,1.00108,  18.9894
   51,'Newcmrst    ', 138.0000,1,   1,   1,   1,0.96688,  16.3703
   52,'SCoshoct    ', 138.0000,1,   1,   1,   1,0.95682,  15.4169
   53,'Wooster     ', 138.0000,1,   1,   1,   1,0.94598,  14.4419
   54,'Torrey      ', 138.0000,2,   1,   1,   1,0.95500,  15.3537
   55,'Wagenhls    ', 138.0000,2,   1,   1,   1,0.95200,  15.0637
   56,'Sunnysde    ', 138.0000,2,   1,   1,   1,0.95400,  15.2504
   57,'WNwPhil1    ', 138.0000,1,   1,   1,   1,0.97058,  16.4552
   58,'WNwPhil2    ', 138.0000,1,   1,   1,   1,0.95904,  15.5984
   59,'Tidd        ', 138.0000,2,   1,   1,   1,0.98500,  19.4530
   60,'SWKammer    ', 138.0000,1,   1,   1,   1,0.99316,  23.2343
   61,'W.Kammer    ', 138.0000,2,   1,   1,   1,0.99500,  24.1257
   62,'Natrium     ', 138.0000,2,   1,   1,   1,0.99800,  23.5091
   63,'Tidd        ', 138.0000,1,   1,   1,   1,0.96874,  22.8316
   64,'Kammer      ', 138.0000,1,   1,   1,   1,0.98374,  24.5973
   65,'Muskngum    ', 138.0000,2,   1,   1,   1,1.00500,  27.7224
   66,'Muskngum    ', 138.0000,2,   1,   1,   1,1.05000,  27.5634
   67,'Summerfl    ', 138.0000,1,   1,   1,   1,1.01968,  24.9235
   68,'Sporn       ', 138.0000,1,   1,   1,   1,1.00325,  27.6013
   69,'Sporn       ', 138.0000,3,   1,   1,   1,1.03500,  30.0000
   70,'Portsmth    ', 138.0000,2,   1,   1,   1,0.98400,  22.6205
   71,'NPortsmt    ', 138.0000,1,   1,   1,   1,0.98684,  22.2096
   72,'Hillsbro    ', 138.0000,2,   1,   1,   1,0.98000,  21.1120
   73,'Sargents    ', 138.0000,2,   1,   1,   1,0.99100,  21.9981
   74,'Bellefnt    ', 138.0000,2,   1,   1,   1,0.95800,  21.6718
   75,'SthPoint    ', 138.0000,1,   1,   1,   1,0.96733,  22.9337
   76,'Darrah      ', 138.0000,2,   1,   1,   1,0.94300,  21.8042
   77,'Turner      ', 138.0000,2,   1,   1,   1,1.00600,  26.7587
   78,'Chemical    ', 138.0000,1,   1,   1,   1,1.00342,  26.4549
   79,'CapitlHl    ', 138.0000,1,   1,   1,   1,1.00922,  26.7541
   80,'CabinCrk    ', 138.0000,2,   1,   1,   1,1.04000,  28.9999
   81,'Kanawha     ', 138.0000,1,   1,   1,   1,0.99681,  28.1508
   82,'Logan       ', 138.0000,1,   1,   1,   1,0.98874,  27.2804
   83,'Sprigg      ', 138.0000,1,   1,   1,   1,0.98452,  28.4707
   84,'BetsyLne    ', 138.0000,1,   1,   1,   1,0.97975,  31.0046
   85,'BeaverCk    ', 138.0000,2,   1,   1,   1,0.98500,  32.5588
   86,'Hazard      ', 138.0000,1,   1,   1,   1,0.98669,  31.1894
   87,'Pinevlle    ', 138.0000,2,   1,   1,   1,1.01500,  31.4486
   88,'Fremont     ', 138.0000,1,   1,   1,   1,0.98746,  35.6902
   89,'ClinchRv    ', 138.0000,2,   1,   1,   1,1.00500,  39.7458
   90,'Holston     ', 138.0000,2,   1,   1,   1,0.98500,  33.3411
   91,'HolstonT    ', 138.0000,2,   1,   1,   1,0.98000,  33.3601
   92,'Saltvlle    ', 138.0000,2,   1,   1,   1,0.99228,  33.8592
   93,'Tazewell    ', 138.0000,1,   1,   1,   1,0.98691,  30.8481
   94,'Switchbk    ', 138.0000,1,   1,   1,   1,0.99057,  28.6941
   95,'Caldwell    ', 138.0000,1,   1,   1,   1,0.98092,  27.7218
   96,'Baileysv    ', 138.0000,1,   1,   1,   1,0.99267,  27.5539
   97,'Sundial     ', 138.0000,1,   1,   1,   1,1.01137,  27.9264
   98,'Bradley     ', 138.0000,1,   1,   1,   1,1.02351,  27.4497
   99,'Hinton      ', 138.0000,2,   1,   1,   1,1.01000,  27.0891
  100,'Glen Lyn    ', 138.0000,2,   1,   1,   1,1.01700,  28.0863
  101,'Wythe       ', 138.0000,1,   1,   1,   1,0.99244,  29.6586
  102,'Smythe      ', 138.0000,1,   1,   1,   1,0.99100,  32.3560
  103,'Claytor     ', 138.0000,2,   1,   1,   1,1.00072,  24.4935
  104,'Hancock     ', 138.0000,2,   1,   1,   1,0.97100,  21.7479
  105,'Roanoke     ', 138.0000,2,   1,   1,   1,0.96599,  20.6259
  106,'Cloverdl    ', 138.0000,1,   1,   1,   1,0.96179,  20.3778
  107,'Reusens     ', 138.0000,2,   1,   1,   1,0.95200,  17.5878
  108,'Blaine      ', 138.0000,1,   1,   1,   1,0.96681,  19.4352
  109,'Franklin    ', 138.0000,1,   1,   1,   1,0.96746,  18.9861
  110,'Fieldale    ', 138.0000,2,   1,   1,   1,0.97300,  18.1474
  111,'DanRiver    ', 138.0000,2,   1,   1,   1,0.98000,  19.7925
  112,'Danville    ', 138.0000,2,   1,   1,   1,0.97500,  15.0482
  113,'Deer Crk    ', 138.0000,2,   1,   1,   1,0.99300,  14.0037
  114,'WMedford    ', 138.0000,1,   1,   1,   1,0.96044,  14.7298
  115,'Medford     ', 138.0000,1,   1,   1,   1,0.96032,  14.7221
  116,'KygerCrk    ', 138.0000,2,   1,   1,   1,1.00500,  27.1664
  117,'Corey       ', 138.0000,1,   1,   1,   1,0.97382,  10.9583
  118,'WHuntngd    ', 138.0000,1,   1,   1,   1,0.94944,  21.9462
0 / END OF BUS DATA, BEGIN LOAD DATA
    1,'1 ',1,   1,   1,    51.000,    27.000,     0.000,     0.000,     0.000,    -0.000,   1,1
    2,'1 ',1,   1,   1,    20.000,     9.000,     0.000,     0.000,     0.000,    -0.000,   1,1
    3,'1 ',1,   1,   1,    39.000,    10.000,     0.000,     0.000,     0.000,    -0.000,   1,1
    4,'1 ',1,   1,   1,    39.000,    12.000,     0.000,     0.000,     0.000,    -0.000,   1,1
    6,'1 ',1,   1,   1,    52.000,    22.000,     0.000,     0.000,     0.000,    -0.000,   1,1
    7,'1 ',1,   1,   1,    19.000,     2.000,     0.000,     0.000,     0.000,    -0.000,   1,1
    8,'1 ',1,   1,   1,    28.000,     0.000,     0.000,     0.000,     0.000,    -0.000,   1,1
   11,'1 ',1,   1,   1,    70.000,    23.000,     0.000,     0.000,     0.000,    -0.000,   1,1
   12,'1 ',1,   1,   1,    47.000,    10.000,     0.000,     0.000,     0.000,    -0.000,   1,1
   13,'1 ',1,   1,   1,    34.000,    16.000,     0.000,     0.000,     0.000,    -0.000,   1,1
   14,'1 ',1,   1,   1,    14.000,     1.000,     0.000,     0.000,     0.000,    -0.000,   1,1
   15,'1 ',1,   1,   1,    90.000,    30.000,     0.000,     0.000,     0.000,    -0.000,   1,1
   16,'1 ',1,   1,   1,    25.000,    10.000,     0.000,     0.000,     0.000,    -0.000,   1,1
   17,'1 ',1,   1,   1,    11.000,     3.000,     0.000,     0.000,     0.000,    -0.000,   1,1
   18,'1 ',1,   1,   1,    60.000,    34.000,     0.000,     0.000,     0.000,    -0.000,   1,1
   19,'1 ',1,   1,   1,    45.000,    25.000,     0.000,     0.000,     0.000,    -0.000,   1,1
   20,'1 ',1,   1,   1,    18.000,     3.000,     0.000,     0.000,     0.000,    -0.000,   1,1
   21,'1 ',1,   1,   1,    14.000,     8.000,     0.000,     0.000,     0.000,    -0.000,   1,1
   22,'1 ',1,   1,   1,    10.000,     5.000,     0.000,     0.000,     0.000,    -0.000,   1,1
   23,'1 ',1,   1,   1,     7.000,     3.000,     0.000,     0.000,     0.000,    -0.000,   1,1
   24,'1 ',1,   1,   1,    13.000,     0.000,     0.000,     0.000,     0.000,    -0.000,   1,1
   27,'1 ',1,   1,   1,    71.000,    13.000,     0.000,     0.000,     0.000,    -0.000,   1,1
   28,'1 ',1,   1,   1,    17.000,     7.000,     0.000,     0.000,     0.000,    -0.000,   1,1
   29,'1 ',1,   1,   1,    24.000,     4.000,     0.000,     0.000,     0.000,    -0.000,   1,1
   31,'1 ',1,   1,   1,    43.000,    27.000,     0.000,     0.000,     0.000,    -0.000,   1,1
   32,'1 ',1,   1,   1,    59.000,    23.000,     0.000,     0.000,     0.000,    -0.000,   1,1
   33,'1 ',1,   1,   1,    23.000,     9.000,     0.000,     0.000,     0.000,    -0.000,   1,1
   34,'1 ',1,   1,   1,    59.000,    26.000,     0.000,     0.000,     0.000,    -0.000,   1,1
   35,'1 ',1,   1,   1,    33.000,     9.000,     0.000,     0.000,     0.000,    -0.000,   1,1
   36,'1 ',1,   1,   1,    31.000,    17.000,     0.000,     0.000,     0.000,    -0.000,   1,1
   39,'1 ',1,   1,   1,    27.000,    11.000,     0.000,     0.000,     0.000,    -0.000,   1,1
   40,'1 ',1,   1,   1,    66.000,    23.000,     0.000,     0.000,     0.000,    -0.000,   1,1
   41,'1 ',1,   1,   1,    37.000,    10.000,     0.000,     0.000,     0.000,    -0.000,   1,1
   42,'1 ',1,   1,   1,    96.000,    23.000,     0.000,     0.000,     0.000,    -0.000,   1,1
   43,'1 ',1,   1,   1,    18.000,     7.000,     0.000,     0.000,     0.000,    -0.000,   1,1
   44,'1 ',1,   1,   1,    16.000,     8.000,     0.000,     0.000,     0.000,    -0.000,   1,1
   45,'1 ',1,   1,   1,    53.000,    22.000,     0.000,     0.000,     0.000,    -0.000,   1,1
   46,'1 ',1,   1,   1,    28.000,    10.000,     0.000,     0.000,     0.000,    -0.000,   1,1
   47,'1 ',1,   1,   1,    34.000,     0.000,     0.000,     0.000,     0.000,    -0.000,   1,1
   48,'1 ',1,   1,   1,    20.000,    11.000,     0.000,     0.000,     0.000,    -0.000,   1,1
   49,'1 ',1,   1,   1,    87.000,    30.000,     0.000,     0.000,     0.000,    -0.000,   1,1
   50,'1 ',1,   1,   1,    17.000,     4.000,     0.000,     0.000,     0.000,    -0.000,   1,1
   51,'1 ',1,   1,   1,    17.000,     8.000,     0.000,     0.000,     0.000,    -0.000,   1,1
   52,'1 ',1,   1,   1,    18.000,     5.000,     0.000,     0.000,     0.000,    -0.000,   1,1
   53,'1 ',1,   1,   1,    23.000,    11.000,     0.000,     0.000,     0.000,    -0.000,   1,1
   54,'1 ',1,   1,   1,   113.000,    32.000,     0.000,     0.000,     0.000,    -0.000,   1,1
   55,'1 ',1,   1,   1,    63.000,    22.000,     0.000,     0.000,     0.000,    -0.000,   1,1
   56,'1 ',1,   1,   1,    84.000,    18.000,     0.000,     0.000,     0.000,    -0.000,   1,1
   57,'1 ',1,   1,   1,    12.000,     3.000,     0.000,     0.000,     0.000,    -0.000,   1,1
   58,'1 ',1,   1,   1,    12.000,     3.000,     0.000,     0.000,     0.000,    -0.000,   1,1
   59,'1 ',1,   1,   1,   277.000,   113.000,     0.000,     0.000,     0.000,    -0.000,   1,1
   60,'1 ',1,   1,   1,    78.000,     3.000,     0.000,     0.000,     0.000,    -0.000,   1,1
   62,'1 ',1,   1,   1,    77.000,    14.000,     0.000,     0.000,     0.000,    -0.000,   1,1
   66,'1 ',1,   1,   1,    39.000,    18.000,     0.000,     0.000,     0.000,    -0.000,   1,1
   67,'1 ',1,   1,   1,    28.000,     7.000,     0.000,     0.000,     0.000,    -0.000,   1,1
   70,'1 ',1,   1,   1,    66.000,    20.000,     0.000,     0.000,     0.000,    -0.000,   1,1
   72,'1 ',1,   1,   1,    12.000,     0.000,     0.000,     0.000,     0.000,    -0.000,   1,1
   73,'1 ',1,   1,   1,     6.000,     0.000,     0.000,     0.000,     0.000,    -0.000,   1,1
   74,'1 ',1,   1,   1,    68.000,    27.000,     0.000,     0.000,     0.000,    -0.000,   1,1
   75,'1 ',1,   1,   1,    47.000,    11.000,     0.000,     0.000,     0.000,    -0.000,   1,1
   76,'1 ',1,   1,   1,    68.000,    36.000,     0.000,     0.000,     0.000,    -0.000,   1,1
   77,'1 ',1,   1,   1,    61.000,    28.000,     0.000,     0.000,     0.000,    -0.000,   1,1
   78,'1 ',1,   1,   1,    71.000,    26.000,     0.000,     0.000,     0.000,    -0.000,   1,1
   79,'1 ',1,   1,   1,    39.000,    32.000,     0.000,     0.000,     0.000,    -0.000,   1,1
   80,'1 ',1,   1,   1,   130.000,    26.000,     0.000,     0.000,     0.000,    -0.000,   1,1
   82,'1 ',1,   1,   1,    54.000,    27.000,     0.000,     0.000,     0.000,    -0.000,   1,1
   83,'1 ',1,   1,   1,    20.000,    10.000,     0.000,     0.000,     0.000,    -0.000,   1,1
   84,'1 ',1,   1,   1,    11.000,     7.000,     0.000,     0.000,     0.000,    -0.000,   1,1
   85,'1 ',1,   1,   1,    24.000,    15.000,     0.000,     0.000,     0.000,    -0.000,   1,1
   86,'1 ',1,   1,   1,    21.000,    10.000,     0.000,     0.000,     0.000,    -0.000,   1,1
   88,'1 ',1,   1,   1,    48.000,    10.000,     0.000,     0.000,     0.000,    -0.000,   1,1
   90,'1 ',1,   1,   1,   163.000,    42.000,     0.000,     0.000,     0.000,    -0.000,   1,1
   91,'1 ',1,   1,   1,    10.000,     0.000,     0.000,     0.000,     0.000,    -0.000,   1,1
   92,'1 ',1,   1,   1,    65.000,    10.000,     0.000,     0.000,     0.000,    -0.000,   1,1
   93,'1 ',1,   1,   1,    12.000,     7.000,     0.000,     0.000,     0.000,    -0.000,   1,1
   94,'1 ',1,   1,   1,    30.000,    16.000,     0.000,     0.000,     0.000,    -0.000,   1,1
   95,'1 ',1,   1,   1,    42.000,    31.000,     0.000,     0.000,     0.000,    -0.000,   1,1
   96,'1 ',1,   1,   1,    38.000,    15.000,     0.000,     0.000,     0.000,    -0.000,   1,1
   97,'1 ',1,   1,   1,    15.000,     9.000,     0.000,     0.000,     0.000,    -0.000,   1,1
   98,'1 ',1,   1,   1,    34.000,     8.000,     0.000,     0.000,     0.000,    -0.000,   1,1
   99,'1 ',1,   1,   1,    42.000,     0.000,     0.000,     0.000,     0.000,    -0.000,   1,1
  100,'1 ',1,   1,   1,    37.000,    18.000,     0.000,     0.000,     0.000,    -0.000,   1,1
  101,'1 ',1,   1,   1,    22.000,    15.000,     0.000,     0.000,     0.000,    -0.000,   1,1
  102,'1 ',1,   1,   1,     5.000,     3.000,     0.000,     0.000,     0.000,    -0.000,   1,1
  103,'1 ',1,   1,   1,    23.000,    16.000,     0.000,     0.000,     0.000,    -0.000,   1,1
  104,'1 ',1,   1,   1,    38.000,    25.000,     0.000,     0.000,     0.000,    -0.000,   1,1
  105,'1 ',1,   1,   1,    31.000,    26.000,     0.000,     0.000,     0.000,    -0.000,   1,1
  106,'1 ',1,   1,   1,    43.000,    16.000,     0.000,     0.000,     0.000,    -0.000,   1,1
  107,'1 ',1,   1,   1,    50.000,    12.000,     0.000,     0.000,     0.000,    -0.000,   1,1
  108,'1 ',1,   1,   1,     2.000,     1.000,     0.000,     0.000,     0.000,    -0.000,   1,1
  109,'1 ',1,   1,   1,     8.000,     3.000,     0.000,     0.000,     0.000,    -0.000,   1,1
  110,'1 ',1,   1,   1,    39.000,    30.000,     0.000,     0.000,     0.000,    -0.000,   1,1
  112,'1 ',1,   1,   1,    68.000,    13.000,     0.000,     0.000,     0.000,    -0.000,   1,1
  113,'1 ',1,   1,   1,     6.000,     0.000,     0.000,     0.000,     0.000,    -0.000,   1,1
  114,'1 ',1,   1,   1,     8.000,     3.000,     0.000,     0.000,     0.000,    -0.000,   1,1
  115,'1 ',1,   1,   1,    22.000,     7.000,     0.000,     0.000,     0.000,    -0.000,   1,1
  116,'1 ',1,   1,   1,   184.000,     0.000,     0.000,     0.000,     0.000,    -0.000,   1,1
  117,'1 ',1,   1,   1,    20.000,     8.000,     0.000,     0.000,     0.000,    -0.000,   1,1
  118,'1 ',1,   1,   1,    33.000,    15.000,     0.000,     0.000,     0.000,    -0.000,   1,1
0 / END OF LOAD DATA, BEGIN FIXED SHUNT DATA
     5,' 1', 1,     0.000,   -40.000
    34,' 1', 1,     0.000,    14.000
    37,' 1', 1,     0.000,   -25.000
    44,' 1', 1,     0.000,    10.000
    45,' 1', 1,     0.000,    10.000
    46,' 1', 1,     0.000,    10.000
    48,' 1', 1,     0.000,    15.000
    74,' 1', 1,     0.000,    12.000
    79,' 1', 1,     0.000,    20.000
    82,' 1', 1,     0.000,    20.000
    83,' 1', 1,     0.000,    10.000
   105,' 1', 1,     0.000,    20.000
   107,' 1', 1,     0.000,     6.000
   110,' 1', 1,     0.000,     6.000
0 / END OF FIXED SHUNT DATA, BEGIN GENERATOR DATA
    1,'1 ',     0.000,    -3.104,    15.000,    -5.000,0.95500,    0,   100.000,   0.00000,   1.00000,   0.00000,   0.00000,1.00000,1,  100.0, 10000.000,-10000.000,   1,1.0000,   0,1.0000,   0,1.0000,   0,1.0000,0, 1.0000
    4,'1 ',     0.000,   -15.005,   300.000,  -300.000,0.99800,    0,   100.000,   0.00000,   1.00000,   0.00000,   0.00000,1.00000,1,  100.0, 10000.000,-10000.000,   1,1.0000,   0,1.0000,   0,1.0000,   0,1.0000,0, 1.0000
    6,'1 ',     0.000,    15.930,    50.000,   -13.000,0.99000,    0,   100.000,   0.00000,   1.00000,   0.00000,   0.00000,1.00000,1,  100.0, 10000.000,-10000.000,   1,1.0000,   0,1.0000,   0,1.0000,   0,1.0000,0, 1.0000
    8,'1 ',     0.000,    62.758,   300.000,  -300.000,1.01500,    0,   100.000,   0.00000,   1.00000,   0.00000,   0.00000,1.00000,1,  100.0, 10000.000,-10000.000,   1,1.0000,   0,1.0000,   0,1.0000,   0,1.0000,0, 1.0000
   10,'1 ',   450.000,   -51.042,   200.000,  -147.000,1.05000,    0,   100.000,   0.00000,   1.00000,   0.00000,   0.00000,1.00000,1,  100.0, 10000.000,-10000.000,   1,1.0000,   0,1.0000,   0,1.0000,   0,1.0000,0, 1.0000
   12,'1 ',    85.000,    91.274,   120.000,   -35.000,0.99000,    0,   100.000,   0.00000,   1.00000,   0.00000,   0.00000,1.00000,1,  100.0, 10000.000,-10000.000,   1,1.0000,   0,1.0000,   0,1.0000,   0,1.0000,0, 1.0000
   15,'1 ',     0.000,     3.060,    30.000,   -10.000,0.97000,    0,   100.000,   0.00000,   1.00000,   0.00000,   0.00000,1.00000,1,  100.0, 10000.000,-10000.000,   1,1.0000,   0,1.0000,   0,1.0000,   0,1.0000,0, 1.0000
   18,'1 ',     0.000,    25.532,    50.000,   -16.000,0.97300,    0,   100.000,   0.00000,   1.00000,   0.00000,   0.00000,1.00000,1,  100.0, 10000.000,-10000.000,   1,1.0000,   0,1.0000,   0,1.0000,   0,1.0000,0, 1.0000
   19,'1 ',     0.000,    -8.000,    24.000,    -8.000,0.96200,    0,   100.000,   0.00000,   1.00000,   0.00000,   0.00000,1.00000,1,  100.0, 10000.000,-10000.000,   1,1.0000,   0,1.0000,   0,1.0000,   0,1.0000,0, 1.0000
   24,'1 ',     0.000,   -15.282,   300.000,  -300.000,0.99200,    0,   100.000,   0.00000,   1.00000,   0.00000,   0.00000,1.00000,1,  100.0, 10000.000,-10000.000,   1,1.0000,   0,1.0000,   0,1.0000,   0,1.0000,0, 1.0000
   25,'1 ',   220.000,    49.798,   140.000,   -47.000,1.05000,    0,   100.000,   0.00000,   1.00000,   0.00000,   0.00000,1.00000,1,  100.0, 10000.000,-10000.000,   1,1.0000,   0,1.0000,   0,1.0000,   0,1.0000,0, 1.0000
   26,'1 ',   314.000,     9.905,  1000.000, -1000.000,1.01500,    0,   100.000,   0.00000,   1.00000,   0.00000,   0.00000,1.00000,1,  100.0, 10000.000,-10000.000,   1,1.0000,   0,1.0000,   0,1.0000,   0,1.0000,0, 1.0000
   27,'1 ',     0.000,     2.831,   300.000,  -300.000,0.96800,    0,   100.000,   0.00000,   1.00000,   0.00000,   0.00000,1.00000,1,  100.0, 10000.000,-10000.000,   1,1.0000,   0,1.0000,   0,1.0000,   0,1.0000,0, 1.0000
   31,'1 ',     7.000,    31.976,   300.000,  -300.000,0.96700,    0,   100.000,   0.00000,   1.00000,   0.00000,   0.00000,1.00000,1,  100.0, 10000.000,-10000.000,   1,1.0000,   0,1.0000,   0,1.0000,   0,1.0000,0, 1.0000
   32,'1 ',     0.000,   -14.000,    42.000,   -14.000,0.96300,    0,   100.000,   0.00000,   1.00000,   0.00000,   0.00000,1.00000,1,  100.0, 10000.000,-10000.000,   1,1.0000,   0,1.0000,   0,1.0000,   0,1.0000,0, 1.0000
   34,'1 ',     0.000,    -8.000,    24.000,    -8.000,0.98400,    0,   100.000,   0.00000,   1.00000,   0.00000,   0.00000,1.00000,1,  100.0, 10000.000,-10000.000,   1,1.0000,   0,1.0000,   0,1.0000,   0,1.0000,0, 1.0000
   36,'1 ',     0.000,    -1.252,    24.000,    -8.000,0.98000,    0,   100.000,   0.00000,   1.00000,   0.00000,   0.00000,1.00000,1,  100.0, 10000.000,-10000.000,   1,1.0000,   0,1.0000,   0,1.0000,   0,1.0000,0, 1.0000
   40,'1 ',     0.000,    26.886,   300.000,  -300.000,0.97000,    0,   100.000,   0.00000,   1.00000,   0.00000,   0.00000,1.00000,1,  100.0, 10000.000,-10000.000,   1,1.0000,   0,1.0000,   0,1.0000,   0,1.0000,0, 1.0000
   42,'1 ',     0.000,    41.004,   300.000,  -300.000,0.98500,    0,   100.000,   0.00000,   1.00000,   0.00000,   0.00000,1.00000,1,  100.0, 10000.000,-10000.000,   1,1.0000,   0,1.0000,   0,1.0000,   0,1.0000,0, 1.0000
   46,'1 ',    19.000,    -5.231,   100.000,  -100.000,1.00500,    0,   100.000,   0.00000,   1.00000,   0.00000,   0.00000,1.00000,1,  100.0, 10000.000,-10000.000,   1,1.0000,   0,1.0000,   0,1.0000,   0,1.0000,0, 1.0000
   49,'1 ',   204.000,   115.647,   210.000,   -85.000,1.02500,    0,   100.000,   0.00000,   1.00000,   0.00000,   0.00000,1.00000,1,  100.0, 10000.000,-10000.000,   1,1.0000,   0,1.0000,   0,1.0000,   0,1.0000,0, 1.0000
   54,'1 ',    48.000,     3.902,   300.000,  -300.000,0.95500,    0,   100.000,   0.00000,   1.00000,   0.00000,   0.00000,1.00000,1,  100.0, 10000.000,-10000.000,   1,1.0000,   0,1.0000,   0,1.0000,   0,1.0000,0, 1.0000
   55,'1 ',     0.000,     4.664,    23.000,    -8.000,0.95200,    0,   100.000,   0.00000,   1.00000,   0.00000,   0.00000,1.00000,1,  100.0, 10000.000,-10000.000,   1,1.0000,   0,1.0000,   0,1.0000,   0,1.0000,0, 1.0000
   56,'1 ',     0.000,    -2.286,    15.000,    -8.000,0.95400,    0,   100.000,   0.00000,   1.00000,   0.00000,   0.00000,1.00000,1,  100.0, 10000.000,-10000.000,   1,1.0000,   0,1.0000,   0,1.0000,   0,1.0000,0, 1.0000
   59,'1 ',   155.000,    76.834,   180.000,   -60.000,0.98500,    0,   100.000,   0.00000,   1.00000,   0.00000,   0.00000,1.00000,1,  100.0, 10000.000,-10000.000,   1,1.0000,   0,1.0000,   0,1.0000,   0,1.0000,0, 1.0000
   61,'1 ',   160.000,   -40.394,   300.000,  -100.000,0.99500,    0,   100.000,   0.00000,   1.00000,   0.00000,   0.00000,1.00000,1,  100.0, 10000.000,-10000.000,   1,1.0000,   0,1.0000,   0,1.0000,   0,1.0000,0, 1.0000
   62,'1 ',     0.000,     1.259,    20.000,   -20.000,0.99800,    0,   100.000,   0.00000,   1.00000,   0.00000,   0.00000,1.00000,1,  100.0, 10000.000,-10000.000,   1,1.0000,   0,1.0000,   0,1.0000,   0,1.0000,0, 1.0000
   65,'1 ',   391.000,    80.812,   200.000,   -67.000,1.00500,    0,   100.000,   0.00000,   1.00000,   0.00000,   0.00000,1.00000,1,  100.0, 10000.000,-10000.000,   1,1.0000,   0,1.0000,   0,1.0000,   0,1.0000,0, 1.0000
   66,'1 ',   392.000,    -1.951,   200.000,   -67.000,1.05000,    0,   100.000,   0.00000,   1.00000,   0.00000,   0.00000,1.00000,1,  100.0, 10000.000,-10000.000,   1,1.0000,   0,1.0000,   0,1.0000,   0,1.0000,0, 1.0000
   69,'1 ',   513.388,   -82.378,   300.000,  -300.000,1.03500,    0,   100.000,   0.00000,   1.00000,   0.00000,   0.00000,1.00000,1,  100.0, 10000.000,-10000.000,   1,1.0000,   0,1.0000,   0,1.0000,   0,1.0000,0, 1.0000
   70,'1 ',     0.000,     9.664,    32.000,   -10.000,0.98400,    0,   100.000,   0.00000,   1.00000,   0.00000,   0.00000,1.00000,1,  100.0, 10000.000,-10000.000,   1,1.0000,   0,1.0000,   0,1.0000,   0,1.0000,0, 1.0000
   72,'1 ',     0.000,   -11.130,   100.000,  -100.000,0.98000,    0,   100.000,   0.00000,   1.00000,   0.00000,   0.00000,1.00000,1,  100.0, 10000.000,-10000.000,   1,1.0000,   0,1.0000,   0,1.0000,   0,1.0000,0, 1.0000
   73,'1 ',     0.000,     9.651,   100.000,  -100.000,0.99100,    0,   100.000,   0.00000,   1.00000,   0.00000,   0.00000,1.00000,1,  100.0, 10000.000,-10000.000,   1,1.0000,   0,1.0000,   0,1.0000,   0,1.0000,0, 1.0000
   74,'1 ',     0.000,    -5.628,     9.000,    -6.000,0.95800,    0,   100.000,   0.00000,   1.00000,   0.00000,   0.00000,1.00000,1,  100.0, 10000.000,-10000.000,   1,1.0000,   0,1.0000,   0,1.0000,   0,1.0000,0, 1.0000
   76,'1 ',     0.000,     5.269,    23.000,    -8.000,0.94300,    0,   100.000,   0.00000,   1.00000,   0.00000,   0.00000,1.00000,1,  100.0, 10000.000,-10000.000,   1,1.0000,   0,1.0000,   0,1.0000,   0,1.0000,0, 1.0000
   77,'1 ',     0.000,    11.943,    70.000,   -20.000,1.00600,    0,   100.000,   0.00000,   1.00000,   0.00000,   0.00000,1.00000,1,  100.0, 10000.000,-10000.000,   1,1.0000,   0,1.0000,   0,1.0000,   0,1.0000,0, 1.0000
   80,'1 ',   477.000,   105.050,   280.000,  -165.000,1.04000,    0,   100.000,   0.00000,   1.00000,   0.00000,   0.00000,1.00000,1,  100.0, 10000.000,-10000.000,   1,1.0000,   0,1.0000,   0,1.0000,   0,1.0000,0, 1.0000
   85,'1 ',     0.000,    -5.768,    23.000,    -8.000,0.98500,    0,   100.000,   0.00000,   1.00000,   0.00000,   0.00000,1.00000,1,  100.0, 10000.000,-10000.000,   1,1.0000,   0,1.0000,   0,1.0000,   0,1.0000,0, 1.0000
   87,'1 ',     4.000,    11.022,  1000.000,  -100.000,1.01500,    0,   100.000,   0.00000,   1.00000,   0.00000,   0.00000,1.00000,1,  100.0, 10000.000,-10000.000,   1,1.0000,   0,1.0000,   0,1.0000,   0,1.0000,0, 1.0000
   89,'1 ',   607.000,   -11.794,   300.000,  -210.000,1.00500,    0,   100.000,   0.00000,   1.00000,   0.00000,   0.00000,1.00000,1,  100.0, 10000.000,-10000.000,   1,1.0000,   0,1.0000,   0,1.0000,   0,1.0000,0, 1.0000
   90,'1 ',     0.000,    59.300,   300.000,  -300.000,0.98500,    0,   100.000,   0.00000,   1.00000,   0.00000,   0.00000,1.00000,1,  100.0, 10000.000,-10000.000,   1,1.0000,   0,1.0000,   0,1.0000,   0,1.0000,0, 1.0000
   91,'1 ',     0.000,   -14.847,   100.000,  -100.000,0.98000,    0,   100.000,   0.00000,   1.00000,   0.00000,   0.00000,1.00000,1,  100.0, 10000.000,-10000.000,   1,1.0000,   0,1.0000,   0,1.0000,   0,1.0000,0, 1.0000
   92,'1 ',     0.000,    -3.000,     9.000,    -3.000,0.99000,    0,   100.000,   0.00000,   1.00000,   0.00000,   0.00000,1.00000,1,  100.0, 10000.000,-10000.000,   1,1.0000,   0,1.0000,   0,1.0000,   0,1.0000,0, 1.0000
   99,'1 ',     0.000,   -17.537,   100.000,  -100.000,1.01000,    0,   100.000,   0.00000,   1.00000,   0.00000,   0.00000,1.00000,1,  100.0, 10000.000,-10000.000,   1,1.0000,   0,1.0000,   0,1.0000,   0,1.0000,0, 1.0000
  100,'1 ',   252.000,   110.058,   155.000,   -50.000,1.01700,    0,   100.000,   0.00000,   1.00000,   0.00000,   0.00000,1.00000,1,  100.0, 10000.000,-10000.000,   1,1.0000,   0,1.0000,   0,1.0000,   0,1.0000,0, 1.0000
  103,'1 ',    40.000,    40.000,    40.000,   -15.000,1.01000,    0,   100.000,   0.00000,   1.00000,   0.00000,   0.00000,1.00000,1,  100.0, 10000.000,-10000.000,   1,1.0000,   0,1.0000,   0,1.0000,   0,1.0000,0, 1.0000
  104,'1 ',     0.000,     5.643,    23.000,    -8.000,0.97100,    0,   100.000,   0.00000,   1.00000,   0.00000,   0.00000,1.00000,1,  100.0, 10000.000,-10000.000,   1,1.0000,   0,1.0000,   0,1.0000,   0,1.0000,0, 1.0000
  105,'1 ',     0.000,    -8.000,    23.000,    -8.000,0.96500,    0,   100.000,   0.00000,   1.00000,   0.00000,   0.00000,1.00000,1,  100.0, 10000.000,-10000.000,   1,1.0000,   0,1.0000,   0,1.0000,   0,1.0000,0, 1.0000
  107,'1 ',     0.000,     5.694,   200.000,  -200.000,0.95200,    0,   100.000,   0.00000,   1.00000,   0.00000,   0.00000,1.00000,1,  100.0, 10000.000,-10000.000,   1,1.0000,   0,1.0000,   0,1.0000,   0,1.0000,0, 1.0000
  110,'1 ',     0.000,     4.854,    23.000,    -8.000,0.97300,    0,   100.000,   0.00000,   1.00000,   0.00000,   0.00000,1.00000,1,  100.0, 10000.000,-10000.000,   1,1.0000,   0,1.0000,   0,1.0000,   0,1.0000,0, 1.0000
  111,'1 ',    36.000,    -1.844,  1000.000,  -100.000,0.98000,    0,   100.000,   0.00000,   1.00000,   0.00000,   0.00000,1.00000,1,  100.0, 10000.000,-10000.000,   1,1.0000,   0,1.0000,   0,1.0000,   0,1.0000,0, 1.0000
  112,'1 ',     0.000,    41.512,  1000.000,  -100.000,0.97500,    0,   100.000,   0.00000,   1.00000,   0.00000,   0.00000,1.00000,1,  100.0, 10000.000,-10000.000,   1,1.0000,   0,1.0000,   0,1.0000,   0,1.0000,0, 1.0000
  113,'1 ',     0.000,     6.323,   200.000,  -100.000,0.99300,    0,   100.000,   0.00000,   1.00000,   0.00000,   0.00000,1.00000,1,  100.0, 10000.000,-10000.000,   1,1.0000,   0,1.0000,   0,1.0000,   0,1.0000,0, 1.0000
  116,'1 ',     0.000,    51.324,  1000.000, -1000.000,1.00500,    0,   100.000,   0.00000,   1.00000,   0.00000,   0.00000,1.00000,1,  100.0, 10000.000,-10000.000,   1,1.0000,   0,1.0000,   0,1.0000,   0,1.0000,0, 1.0000
0 / END OF GENERATOR DATA, BEGIN BRANCH DATA
    1,     2,'1 ', 0.03030, 0.09990,0.02540,   0.00,   0.00,   0.00,  0.00000,  0.00000,  0.00000,  0.00000,1,1,   0.0,   1,1.0000,   0,1.0000,   0,1.0000,   0,1.0000
    1,     3,'1 ', 0.01290, 0.04240,0.01082,   0.00,   0.00,   0.00,  0.00000,  0.00000,  0.00000,  0.00000,1,1,   0.0,   1,1.0000,   0,1.0000,   0,1.0000,   0,1.0000
    2,    12,'1 ', 0.01870, 0.06160,0.01572,   0.00,   0.00,   0.00,  0.00000,  0.00000,  0.00000,  0.00000,1,1,   0.0,   1,1.0000,   0,1.0000,   0,1.0000,   0,1.0000
    3,     5,'1 ', 0.02410, 0.10800,0.02840,   0.00,   0.00,   0.00,  0.00000,  0.00000,  0.00000,  0.00000,1,1,   0.0,   1,1.0000,   0,1.0000,   0,1.0000,   0,1.0000
    3,    12,'1 ', 0.04840, 0.16000,0.04060,   0.00,   0.00,   0.00,  0.00000,  0.00000,  0.00000,  0.00000,1,1,   0.0,   1,1.0000,   0,1.0000,   0,1.0000,   0,1.0000
    4,     5,'1 ', 0.00176, 0.00798,0.00210,   0.00,   0.00,   0.00,  0.00000,  0.00000,  0.00000,  0.00000,1,1,   0.0,   1,1.0000,   0,1.0000,   0,1.0000,   0,1.0000
    4,    11,'1 ', 0.02090, 0.06880,0.01748,   0.00,   0.00,   0.00,  0.00000,  0.00000,  0.00000,  0.00000,1,1,   0.0,   1,1.0000,   0,1.0000,   0,1.0000,   0,1.0000
    5,     6,'1 ', 0.01190, 0.05400,0.01426,   0.00,   0.00,   0.00,  0.00000,  0.00000,  0.00000,  0.00000,1,1,   0.0,   1,1.0000,   0,1.0000,   0,1.0000,   0,1.0000
    5,    11,'1 ', 0.02030, 0.06820,0.01738,   0.00,   0.00,   0.00,  0.00000,  0.00000,  0.00000,  0.00000,1,1,   0.0,   1,1.0000,   0,1.0000,   0,1.0000,   0,1.0000
    6,     7,'1 ', 0.00459, 0.02080,0.00550,   0.00,   0.00,   0.00,  0.00000,  0.00000,  0.00000,  0.00000,1,1,   0.0,   1,1.0000,   0,1.0000,   0,1.0000,   0,1.0000
    7,    12,'1 ', 0.00862, 0.03400,0.00874,   0.00,   0.00,   0.00,  0.00000,  0.00000,  0.00000,  0.00000,1,1,   0.0,   1,1.0000,   0,1.0000,   0,1.0000,   0,1.0000
    8,     9,'1 ', 0.00244, 0.03050,1.16200,   0.00,   0.00,   0.00,  0.00000,  0.00000,  0.00000,  0.00000,1,1,   0.0,   1,1.0000,   0,1.0000,   0,1.0000,   0,1.0000
    8,    30,'1 ', 0.00431, 0.05040,0.51400,   0.00,   0.00,   0.00,  0.00000,  0.00000,  0.00000,  0.00000,1,1,   0.0,   1,1.0000,   0,1.0000,   0,1.0000,   0,1.0000
    9,    10,'1 ', 0.00258, 0.03220,1.23000,   0.00,   0.00,   0.00,  0.00000,  0.00000,  0.00000,  0.00000,1,1,   0.0,   1,1.0000,   0,1.0000,   0,1.0000,   0,1.0000
   11,    12,'1 ', 0.00595, 0.01960,0.00502,   0.00,   0.00,   0.00,  0.00000,  0.00000,  0.00000,  0.00000,1,1,   0.0,   1,1.0000,   0,1.0000,   0,1.0000,   0,1.0000
   11,    13,'1 ', 0.02225, 0.07310,0.01876,   0.00,   0.00,   0.00,  0.00000,  0.00000,  0.00000,  0.00000,1,1,   0.0,   1,1.0000,   0,1.0000,   0,1.0000,   0,1.0000
   12,    14,'1 ', 0.02150, 0.07070,0.01816,   0.00,   0.00,   0.00,  0.00000,  0.00000,  0.00000,  0.00000,1,1,   0.0,   1,1.0000,   0,1.0000,   0,1.0000,   0,1.0000
   12,    16,'1 ', 0.02120, 0.08340,0.02140,   0.00,   0.00,   0.00,  0.00000,  0.00000,  0.00000,  0.00000,1,1,   0.0,   1,1.0000,   0,1.0000,   0,1.0000,   0,1.0000
   12,   117,'1 ', 0.03290, 0.14000,0.03580,   0.00,   0.00,   0.00,  0.00000,  0.00000,  0.00000,  0.00000,1,1,   0.0,   1,1.0000,   0,1.0000,   0,1.0000,   0,1.0000
   13,    15,'1 ', 0.07440, 0.24440,0.06268,   0.00,   0.00,   0.00,  0.00000,  0.00000,  0.00000,  0.00000,1,1,   0.0,   1,1.0000,   0,1.0000,   0,1.0000,   0,1.0000
   14,    15,'1 ', 0.05950, 0.19500,0.05020,   0.00,   0.00,   0.00,  0.00000,  0.00000,  0.00000,  0.00000,1,1,   0.0,   1,1.0000,   0,1.0000,   0,1.0000,   0,1.0000
   15,    17,'1 ', 0.01320, 0.04370,0.04440,   0.00,   0.00,   0.00,  0.00000,  0.00000,  0.00000,  0.00000,1,1,   0.0,   1,1.0000,   0,1.0000,   0,1.0000,   0,1.0000
   15,    19,'1 ', 0.01200, 0.03940,0.01010,   0.00,   0.00,   0.00,  0.00000,  0.00000,  0.00000,  0.00000,1,1,   0.0,   1,1.0000,   0,1.0000,   0,1.0000,   0,1.0000
   15,    33,'1 ', 0.03800, 0.12440,0.03194,   0.00,   0.00,   0.00,  0.00000,  0.00000,  0.00000,  0.00000,1,1,   0.0,   1,1.0000,   0,1.0000,   0,1.0000,   0,1.0000
   16,    17,'1 ', 0.04540, 0.18010,0.04660,   0.00,   0.00,   0.00,  0.00000,  0.00000,  0.00000,  0.00000,1,1,   0.0,   1,1.0000,   0,1.0000,   0,1.0000,   0,1.0000
   17,    18,'1 ', 0.01230, 0.05050,0.01298,   0.00,   0.00,   0.00,  0.00000,  0.00000,  0.00000,  0.00000,1,1,   0.0,   1,1.0000,   0,1.0000,   0,1.0000,   0,1.0000
   17,    31,'1 ', 0.04740, 0.15630,0.03990,   0.00,   0.00,   0.00,  0.00000,  0.00000,  0.00000,  0.00000,1,1,   0.0,   1,1.0000,   0,1.0000,   0,1.0000,   0,1.0000
   17,   113,'1 ', 0.00913, 0.03010,0.00768,   0.00,   0.00,   0.00,  0.00000,  0.00000,  0.00000,  0.00000,1,1,   0.0,   1,1.0000,   0,1.0000,   0,1.0000,   0,1.0000
   18,    19,'1 ', 0.01119, 0.04930,0.01142,   0.00,   0.00,   0.00,  0.00000,  0.00000,  0.00000,  0.00000,1,1,   0.0,   1,1.0000,   0,1.0000,   0,1.0000,   0,1.0000
   19,    20,'1 ', 0.02520, 0.11700,0.02980,   0.00,   0.00,   0.00,  0.00000,  0.00000,  0.00000,  0.00000,1,1,   0.0,   1,1.0000,   0,1.0000,   0,1.0000,   0,1.0000
   19,    34,'1 ', 0.07520, 0.24700,0.06320,   0.00,   0.00,   0.00,  0.00000,  0.00000,  0.00000,  0.00000,1,1,   0.0,   1,1.0000,   0,1.0000,   0,1.0000,   0,1.0000
   20,    21,'1 ', 0.01830, 0.08490,0.02160,   0.00,   0.00,   0.00,  0.00000,  0.00000,  0.00000,  0.00000,1,1,   0.0,   1,1.0000,   0,1.0000,   0,1.0000,   0,1.0000
   21,    22,'1 ', 0.02090, 0.09700,0.02460,   0.00,   0.00,   0.00,  0.00000,  0.00000,  0.00000,  0.00000,1,1,   0.0,   1,1.0000,   0,1.0000,   0,1.0000,   0,1.0000
   22,    23,'1 ', 0.03420, 0.15900,0.04040,   0.00,   0.00,   0.00,  0.00000,  0.00000,  0.00000,  0.00000,1,1,   0.0,   1,1.0000,   0,1.0000,   0,1.0000,   0,1.0000
   23,    24,'1 ', 0.01350, 0.04920,0.04980,   0.00,   0.00,   0.00,  0.00000,  0.00000,  0.00000,  0.00000,1,1,   0.0,   1,1.0000,   0,1.0000,   0,1.0000,   0,1.0000
   23,    25,'1 ', 0.01560, 0.08000,0.08640,   0.00,   0.00,   0.00,  0.00000,  0.00000,  0.00000,  0.00000,1,1,   0.0,   1,1.0000,   0,1.0000,   0,1.0000,   0,1.0000
   23,    32,'1 ', 0.03170, 0.11530,0.11730,   0.00,   0.00,   0.00,  0.00000,  0.00000,  0.00000,  0.00000,1,1,   0.0,   1,1.0000,   0,1.0000,   0,1.0000,   0,1.0000
   24,    70,'1 ', 0.00221, 0.41150,0.10198,   0.00,   0.00,   0.00,  0.00000,  0.00000,  0.00000,  0.00000,1,1,   0.0,   1,1.0000,   0,1.0000,   0,1.0000,   0,1.0000
   24,    72,'1 ', 0.04880, 0.19600,0.04880,   0.00,   0.00,   0.00,  0.00000,  0.00000,  0.00000,  0.00000,1,1,   0.0,   1,1.0000,   0,1.0000,   0,1.0000,   0,1.0000
   25,    27,'1 ', 0.03180, 0.16300,0.17640,   0.00,   0.00,   0.00,  0.00000,  0.00000,  0.00000,  0.00000,1,1,   0.0,   1,1.0000,   0,1.0000,   0,1.0000,   0,1.0000
   26,    30,'1 ', 0.00799, 0.08600,0.90800,   0.00,   0.00,   0.00,  0.00000,  0.00000,  0.00000,  0.00000,1,1,   0.0,   1,1.0000,   0,1.0000,   0,1.0000,   0,1.0000
   27,    28,'1 ', 0.01913, 0.08550,0.02160,   0.00,   0.00,   0.00,  0.00000,  0.00000,  0.00000,  0.00000,1,1,   0.0,   1,1.0000,   0,1.0000,   0,1.0000,   0,1.0000
   27,    32,'1 ', 0.02290, 0.07550,0.01926,   0.00,   0.00,   0.00,  0.00000,  0.00000,  0.00000,  0.00000,1,1,   0.0,   1,1.0000,   0,1.0000,   0,1.0000,   0,1.0000
   27,   115,'1 ', 0.01640, 0.07410,0.01972,   0.00,   0.00,   0.00,  0.00000,  0.00000,  0.00000,  0.00000,1,1,   0.0,   1,1.0000,   0,1.0000,   0,1.0000,   0,1.0000
   28,    29,'1 ', 0.02370, 0.09430,0.02380,   0.00,   0.00,   0.00,  0.00000,  0.00000,  0.00000,  0.00000,1,1,   0.0,   1,1.0000,   0,1.0000,   0,1.0000,   0,1.0000
   29,    31,'1 ', 0.01080, 0.03310,0.00830,   0.00,   0.00,   0.00,  0.00000,  0.00000,  0.00000,  0.00000,1,1,   0.0,   1,1.0000,   0,1.0000,   0,1.0000,   0,1.0000
   30,    38,'1 ', 0.00464, 0.05400,0.42200,   0.00,   0.00,   0.00,  0.00000,  0.00000,  0.00000,  0.00000,1,1,   0.0,   1,1.0000,   0,1.0000,   0,1.0000,   0,1.0000
   31,    32,'1 ', 0.02980, 0.09850,0.02510,   0.00,   0.00,   0.00,  0.00000,  0.00000,  0.00000,  0.00000,1,1,   0.0,   1,1.0000,   0,1.0000,   0,1.0000,   0,1.0000
   32,   113,'1 ', 0.06150, 0.20300,0.05180,   0.00,   0.00,   0.00,  0.00000,  0.00000,  0.00000,  0.00000,1,1,   0.0,   1,1.0000,   0,1.0000,   0,1.0000,   0,1.0000
   32,   114,'1 ', 0.01350, 0.06120,0.01628,   0.00,   0.00,   0.00,  0.00000,  0.00000,  0.00000,  0.00000,1,1,   0.0,   1,1.0000,   0,1.0000,   0,1.0000,   0,1.0000
   33,    37,'1 ', 0.04150, 0.14200,0.03660,   0.00,   0.00,   0.00,  0.00000,  0.00000,  0.00000,  0.00000,1,1,   0.0,   1,1.0000,   0,1.0000,   0,1.0000,   0,1.0000
   34,    36,'1 ', 0.00871, 0.02680,0.00568,   0.00,   0.00,   0.00,  0.00000,  0.00000,  0.00000,  0.00000,1,1,   0.0,   1,1.0000,   0,1.0000,   0,1.0000,   0,1.0000
   34,    37,'1 ', 0.00256, 0.00940,0.00984,   0.00,   0.00,   0.00,  0.00000,  0.00000,  0.00000,  0.00000,1,1,   0.0,   1,1.0000,   0,1.0000,   0,1.0000,   0,1.0000
   34,    43,'1 ', 0.04130, 0.16810,0.04226,   0.00,   0.00,   0.00,  0.00000,  0.00000,  0.00000,  0.00000,1,1,   0.0,   1,1.0000,   0,1.0000,   0,1.0000,   0,1.0000
   35,    36,'1 ', 0.00224, 0.01020,0.00268,   0.00,   0.00,   0.00,  0.00000,  0.00000,  0.00000,  0.00000,1,1,   0.0,   1,1.0000,   0,1.0000,   0,1.0000,   0,1.0000
   35,    37,'1 ', 0.01100, 0.04970,0.01318,   0.00,   0.00,   0.00,  0.00000,  0.00000,  0.00000,  0.00000,1,1,   0.0,   1,1.0000,   0,1.0000,   0,1.0000,   0,1.0000
   37,    39,'1 ', 0.03210, 0.10600,0.02700,   0.00,   0.00,   0.00,  0.00000,  0.00000,  0.00000,  0.00000,1,1,   0.0,   1,1.0000,   0,1.0000,   0,1.0000,   0,1.0000
   37,    40,'1 ', 0.05930, 0.16800,0.04200,   0.00,   0.00,   0.00,  0.00000,  0.00000,  0.00000,  0.00000,1,1,   0.0,   1,1.0000,   0,1.0000,   0,1.0000,   0,1.0000
   38,    65,'1 ', 0.00901, 0.09860,1.04600,   0.00,   0.00,   0.00,  0.00000,  0.00000,  0.00000,  0.00000,1,1,   0.0,   1,1.0000,   0,1.0000,   0,1.0000,   0,1.0000
   39,    40,'1 ', 0.01840, 0.06050,0.01552,   0.00,   0.00,   0.00,  0.00000,  0.00000,  0.00000,  0.00000,1,1,   0.0,   1,1.0000,   0,1.0000,   0,1.0000,   0,1.0000
   40,    41,'1 ', 0.01450, 0.04870,0.01222,   0.00,   0.00,   0.00,  0.00000,  0.00000,  0.00000,  0.00000,1,1,   0.0,   1,1.0000,   0,1.0000,   0,1.0000,   0,1.0000
   40,    42,'1 ', 0.05550, 0.18300,0.04660,   0.00,   0.00,   0.00,  0.00000,  0.00000,  0.00000,  0.00000,1,1,   0.0,   1,1.0000,   0,1.0000,   0,1.0000,   0,1.0000
   41,    42,'1 ', 0.04100, 0.13500,0.03440,   0.00,   0.00,   0.00,  0.00000,  0.00000,  0.00000,  0.00000,1,1,   0.0,   1,1.0000,   0,1.0000,   0,1.0000,   0,1.0000
   42,    49,'1 ', 0.07150, 0.32300,0.08600,   0.00,   0.00,   0.00,  0.00000,  0.00000,  0.00000,  0.00000,1,1,   0.0,   1,1.0000,   0,1.0000,   0,1.0000,   0,1.0000
   42,    49,'2 ', 0.07150, 0.32300,0.08600,   0.00,   0.00,   0.00,  0.00000,  0.00000,  0.00000,  0.00000,1,1,   0.0,   1,1.0000,   0,1.0000,   0,1.0000,   0,1.0000
   43,    44,'1 ', 0.06080, 0.24540,0.06068,   0.00,   0.00,   0.00,  0.00000,  0.00000,  0.00000,  0.00000,1,1,   0.0,   1,1.0000,   0,1.0000,   0,1.0000,   0,1.0000
   44,    45,'1 ', 0.02240, 0.09010,0.02240,   0.00,   0.00,   0.00,  0.00000,  0.00000,  0.00000,  0.00000,1,1,   0.0,   1,1.0000,   0,1.0000,   0,1.0000,   0,1.0000
   45,    46,'1 ', 0.04000, 0.13560,0.03320,   0.00,   0.00,   0.00,  0.00000,  0.00000,  0.00000,  0.00000,1,1,   0.0,   1,1.0000,   0,1.0000,   0,1.0000,   0,1.0000
   45,    49,'1 ', 0.06840, 0.18600,0.04440,   0.00,   0.00,   0.00,  0.00000,  0.00000,  0.00000,  0.00000,1,1,   0.0,   1,1.0000,   0,1.0000,   0,1.0000,   0,1.0000
   46,    47,'1 ', 0.03800, 0.12700,0.03160,   0.00,   0.00,   0.00,  0.00000,  0.00000,  0.00000,  0.00000,1,1,   0.0,   1,1.0000,   0,1.0000,   0,1.0000,   0,1.0000
   46,    48,'1 ', 0.06010, 0.18900,0.04720,   0.00,   0.00,   0.00,  0.00000,  0.00000,  0.00000,  0.00000,1,1,   0.0,   1,1.0000,   0,1.0000,   0,1.0000,   0,1.0000
   47,    49,'1 ', 0.01910, 0.06250,0.01604,   0.00,   0.00,   0.00,  0.00000,  0.00000,  0.00000,  0.00000,1,1,   0.0,   1,1.0000,   0,1.0000,   0,1.0000,   0,1.0000
   47,    69,'1 ', 0.08440, 0.27780,0.07092,   0.00,   0.00,   0.00,  0.00000,  0.00000,  0.00000,  0.00000,1,1,   0.0,   1,1.0000,   0,1.0000,   0,1.0000,   0,1.0000
   48,    49,'1 ', 0.01790, 0.05050,0.01258,   0.00,   0.00,   0.00,  0.00000,  0.00000,  0.00000,  0.00000,1,1,   0.0,   1,1.0000,   0,1.0000,   0,1.0000,   0,1.0000
   49,    50,'1 ', 0.02670, 0.07520,0.01874,   0.00,   0.00,   0.00,  0.00000,  0.00000,  0.00000,  0.00000,1,1,   0.0,   1,1.0000,   0,1.0000,   0,1.0000,   0,1.0000
   49,    51,'1 ', 0.04860, 0.13700,0.03420,   0.00,   0.00,   0.00,  0.00000,  0.00000,  0.00000,  0.00000,1,1,   0.0,   1,1.0000,   0,1.0000,   0,1.0000,   0,1.0000
   49,    54,'1 ', 0.07300, 0.28900,0.07380,   0.00,   0.00,   0.00,  0.00000,  0.00000,  0.00000,  0.00000,1,1,   0.0,   1,1.0000,   0,1.0000,   0,1.0000,   0,1.0000
   49,    54,'2 ', 0.08690, 0.29100,0.07300,   0.00,   0.00,   0.00,  0.00000,  0.00000,  0.00000,  0.00000,1,1,   0.0,   1,1.0000,   0,1.0000,   0,1.0000,   0,1.0000
   49,    66,'1 ', 0.01800, 0.09190,0.02480,   0.00,   0.00,   0.00,  0.00000,  0.00000,  0.00000,  0.00000,1,1,   0.0,   1,1.0000,   0,1.0000,   0,1.0000,   0,1.0000
   49,    66,'2 ', 0.01800, 0.09190,0.02480,   0.00,   0.00,   0.00,  0.00000,  0.00000,  0.00000,  0.00000,1,1,   0.0,   1,1.0000,   0,1.0000,   0,1.0000,   0,1.0000
   49,    69,'1 ', 0.09850, 0.32400,0.08280,   0.00,   0.00,   0.00,  0.00000,  0.00000,  0.00000,  0.00000,1,1,   0.0,   1,1.0000,   0,1.0000,   0,1.0000,   0,1.0000
   50,    57,'1 ', 0.04740, 0.13400,0.03320,   0.00,   0.00,   0.00,  0.00000,  0.00000,  0.00000,  0.00000,1,1,   0.0,   1,1.0000,   0,1.0000,   0,1.0000,   0,1.0000
   51,    52,'1 ', 0.02030, 0.05880,0.01396,   0.00,   0.00,   0.00,  0.00000,  0.00000,  0.00000,  0.00000,1,1,   0.0,   1,1.0000,   0,1.0000,   0,1.0000,   0,1.0000
   51,    58,'1 ', 0.02550, 0.07190,0.01788,   0.00,   0.00,   0.00,  0.00000,  0.00000,  0.00000,  0.00000,1,1,   0.0,   1,1.0000,   0,1.0000,   0,1.0000,   0,1.0000
   52,    53,'1 ', 0.04050, 0.16350,0.04058,   0.00,   0.00,   0.00,  0.00000,  0.00000,  0.00000,  0.00000,1,1,   0.0,   1,1.0000,   0,1.0000,   0,1.0000,   0,1.0000
   53,    54,'1 ', 0.02630, 0.12200,0.03100,   0.00,   0.00,   0.00,  0.00000,  0.00000,  0.00000,  0.00000,1,1,   0.0,   1,1.0000,   0,1.0000,   0,1.0000,   0,1.0000
   54,    55,'1 ', 0.01690, 0.07070,0.02020,   0.00,   0.00,   0.00,  0.00000,  0.00000,  0.00000,  0.00000,1,1,   0.0,   1,1.0000,   0,1.0000,   0,1.0000,   0,1.0000
   54,    56,'1 ', 0.00275, 0.00955,0.00732,   0.00,   0.00,   0.00,  0.00000,  0.00000,  0.00000,  0.00000,1,1,   0.0,   1,1.0000,   0,1.0000,   0,1.0000,   0,1.0000
   54,    59,'1 ', 0.05030, 0.22930,0.05980,   0.00,   0.00,   0.00,  0.00000,  0.00000,  0.00000,  0.00000,1,1,   0.0,   1,1.0000,   0,1.0000,   0,1.0000,   0,1.0000
   55,    56,'1 ', 0.00488, 0.01510,0.00374,   0.00,   0.00,   0.00,  0.00000,  0.00000,  0.00000,  0.00000,1,1,   0.0,   1,1.0000,   0,1.0000,   0,1.0000,   0,1.0000
   55,    59,'1 ', 0.04739, 0.21580,0.05646,   0.00,   0.00,   0.00,  0.00000,  0.00000,  0.00000,  0.00000,1,1,   0.0,   1,1.0000,   0,1.0000,   0,1.0000,   0,1.0000
   56,    57,'1 ', 0.03430, 0.09660,0.02420,   0.00,   0.00,   0.00,  0.00000,  0.00000,  0.00000,  0.00000,1,1,   0.0,   1,1.0000,   0,1.0000,   0,1.0000,   0,1.0000
   56,    58,'1 ', 0.03430, 0.09660,0.02420,   0.00,   0.00,   0.00,  0.00000,  0.00000,  0.00000,  0.00000,1,1,   0.0,   1,1.0000,   0,1.0000,   0,1.0000,   0,1.0000
   56,    59,'1 ', 0.08250, 0.25100,0.05690,   0.00,   0.00,   0.00,  0.00000,  0.00000,  0.00000,  0.00000,1,1,   0.0,   1,1.0000,   0,1.0000,   0,1.0000,   0,1.0000
   56,    59,'2 ', 0.08030, 0.23900,0.05360,   0.00,   0.00,   0.00,  0.00000,  0.00000,  0.00000,  0.00000,1,1,   0.0,   1,1.0000,   0,1.0000,   0,1.0000,   0,1.0000
   59,    60,'1 ', 0.03170, 0.14500,0.03760,   0.00,   0.00,   0.00,  0.00000,  0.00000,  0.00000,  0.00000,1,1,   0.0,   1,1.0000,   0,1.0000,   0,1.0000,   0,1.0000
   59,    61,'1 ', 0.03280, 0.15000,0.03880,   0.00,   0.00,   0.00,  0.00000,  0.00000,  0.00000,  0.00000,1,1,   0.0,   1,1.0000,   0,1.0000,   0,1.0000,   0,1.0000
   60,    61,'1 ', 0.00264, 0.01350,0.01456,   0.00,   0.00,   0.00,  0.00000,  0.00000,  0.00000,  0.00000,1,1,   0.0,   1,1.0000,   0,1.0000,   0,1.0000,   0,1.0000
   60,    62,'1 ', 0.01230, 0.05610,0.01468,   0.00,   0.00,   0.00,  0.00000,  0.00000,  0.00000,  0.00000,1,1,   0.0,   1,1.0000,   0,1.0000,   0,1.0000,   0,1.0000
   61,    62,'1 ', 0.00824, 0.03760,0.00980,   0.00,   0.00,   0.00,  0.00000,  0.00000,  0.00000,  0.00000,1,1,   0.0,   1,1.0000,   0,1.0000,   0,1.0000,   0,1.0000
   62,    66,'1 ', 0.04820, 0.21800,0.05780,   0.00,   0.00,   0.00,  0.00000,  0.00000,  0.00000,  0.00000,1,1,   0.0,   1,1.0000,   0,1.0000,   0,1.0000,   0,1.0000
   62,    67,'1 ', 0.02580, 0.11700,0.03100,   0.00,   0.00,   0.00,  0.00000,  0.00000,  0.00000,  0.00000,1,1,   0.0,   1,1.0000,   0,1.0000,   0,1.0000,   0,1.0000
   63,    64,'1 ', 0.00172, 0.02000,0.21600,   0.00,   0.00,   0.00,  0.00000,  0.00000,  0.00000,  0.00000,1,1,   0.0,   1,1.0000,   0,1.0000,   0,1.0000,   0,1.0000
   64,    65,'1 ', 0.00269, 0.03020,0.38000,   0.00,   0.00,   0.00,  0.00000,  0.00000,  0.00000,  0.00000,1,1,   0.0,   1,1.0000,   0,1.0000,   0,1.0000,   0,1.0000
   65,    68,'1 ', 0.00138, 0.01600,0.63800,   0.00,   0.00,   0.00,  0.00000,  0.00000,  0.00000,  0.00000,1,1,   0.0,   1,1.0000,   0,1.0000,   0,1.0000,   0,1.0000
   66,    67,'1 ', 0.02240, 0.10150,0.02682,   0.00,   0.00,   0.00,  0.00000,  0.00000,  0.00000,  0.00000,1,1,   0.0,   1,1.0000,   0,1.0000,   0,1.0000,   0,1.0000
   68,    81,'1 ', 0.00175, 0.02020,0.80800,   0.00,   0.00,   0.00,  0.00000,  0.00000,  0.00000,  0.00000,1,1,   0.0,   1,1.0000,   0,1.0000,   0,1.0000,   0,1.0000
   68,   116,'1 ', 0.00034, 0.00405,0.16400,   0.00,   0.00,   0.00,  0.00000,  0.00000,  0.00000,  0.00000,1,1,   0.0,   1,1.0000,   0,1.0000,   0,1.0000,   0,1.0000
   69,    70,'1 ', 0.03000, 0.12700,0.12200,   0.00,   0.00,   0.00,  0.00000,  0.00000,  0.00000,  0.00000,1,1,   0.0,   1,1.0000,   0,1.0000,   0,1.0000,   0,1.0000
   69,    75,'1 ', 0.04050, 0.12200,0.12400,   0.00,   0.00,   0.00,  0.00000,  0.00000,  0.00000,  0.00000,1,1,   0.0,   1,1.0000,   0,1.0000,   0,1.0000,   0,1.0000
   69,    77,'1 ', 0.03090, 0.10100,0.10380,   0.00,   0.00,   0.00,  0.00000,  0.00000,  0.00000,  0.00000,1,1,   0.0,   1,1.0000,   0,1.0000,   0,1.0000,   0,1.0000
   70,    71,'1 ', 0.00882, 0.03550,0.00878,   0.00,   0.00,   0.00,  0.00000,  0.00000,  0.00000,  0.00000,1,1,   0.0,   1,1.0000,   0,1.0000,   0,1.0000,   0,1.0000
   70,    74,'1 ', 0.04010, 0.13230,0.03368,   0.00,   0.00,   0.00,  0.00000,  0.00000,  0.00000,  0.00000,1,1,   0.0,   1,1.0000,   0,1.0000,   0,1.0000,   0,1.0000
   70,    75,'1 ', 0.04280, 0.14100,0.03600,   0.00,   0.00,   0.00,  0.00000,  0.00000,  0.00000,  0.00000,1,1,   0.0,   1,1.0000,   0,1.0000,   0,1.0000,   0,1.0000
   71,    72,'1 ', 0.04460, 0.18000,0.04444,   0.00,   0.00,   0.00,  0.00000,  0.00000,  0.00000,  0.00000,1,1,   0.0,   1,1.0000,   0,1.0000,   0,1.0000,   0,1.0000
   71,    73,'1 ', 0.00866, 0.04540,0.01178,   0.00,   0.00,   0.00,  0.00000,  0.00000,  0.00000,  0.00000,1,1,   0.0,   1,1.0000,   0,1.0000,   0,1.0000,   0,1.0000
   74,    75,'1 ', 0.01230, 0.04060,0.01034,   0.00,   0.00,   0.00,  0.00000,  0.00000,  0.00000,  0.00000,1,1,   0.0,   1,1.0000,   0,1.0000,   0,1.0000,   0,1.0000
   75,    77,'1 ', 0.06010, 0.19990,0.04978,   0.00,   0.00,   0.00,  0.00000,  0.00000,  0.00000,  0.00000,1,1,   0.0,   1,1.0000,   0,1.0000,   0,1.0000,   0,1.0000
   75,   118,'1 ', 0.01450, 0.04810,0.01198,   0.00,   0.00,   0.00,  0.00000,  0.00000,  0.00000,  0.00000,1,1,   0.0,   1,1.0000,   0,1.0000,   0,1.0000,   0,1.0000
   76,    77,'1 ', 0.04440, 0.14800,0.03680,   0.00,   0.00,   0.00,  0.00000,  0.00000,  0.00000,  0.00000,1,1,   0.0,   1,1.0000,   0,1.0000,   0,1.0000,   0,1.0000
   76,   118,'1 ', 0.01640, 0.05440,0.01356,   0.00,   0.00,   0.00,  0.00000,  0.00000,  0.00000,  0.00000,1,1,   0.0,   1,1.0000,   0,1.0000,   0,1.0000,   0,1.0000
   77,    78,'1 ', 0.00376, 0.01240,0.01264,   0.00,   0.00,   0.00,  0.00000,  0.00000,  0.00000,  0.00000,1,1,   0.0,   1,1.0000,   0,1.0000,   0,1.0000,   0,1.0000
   77,    80,'1 ', 0.01700, 0.04850,0.04720,   0.00,   0.00,   0.00,  0.00000,  0.00000,  0.00000,  0.00000,1,1,   0.0,   1,1.0000,   0,1.0000,   0,1.0000,   0,1.0000
   77,    80,'2 ', 0.02940, 0.10500,0.02280,   0.00,   0.00,   0.00,  0.00000,  0.00000,  0.00000,  0.00000,1,1,   0.0,   1,1.0000,   0,1.0000,   0,1.0000,   0,1.0000
   77,    82,'1 ', 0.02980, 0.08530,0.08174,   0.00,   0.00,   0.00,  0.00000,  0.00000,  0.00000,  0.00000,1,1,   0.0,   1,1.0000,   0,1.0000,   0,1.0000,   0,1.0000
   78,    79,'1 ', 0.00546, 0.02440,0.00648,   0.00,   0.00,   0.00,  0.00000,  0.00000,  0.00000,  0.00000,1,1,   0.0,   1,1.0000,   0,1.0000,   0,1.0000,   0,1.0000
   79,    80,'1 ', 0.01560, 0.07040,0.01870,   0.00,   0.00,   0.00,  0.00000,  0.00000,  0.00000,  0.00000,1,1,   0.0,   1,1.0000,   0,1.0000,   0,1.0000,   0,1.0000
   80,    96,'1 ', 0.03560, 0.18200,0.04940,   0.00,   0.00,   0.00,  0.00000,  0.00000,  0.00000,  0.00000,1,1,   0.0,   1,1.0000,   0,1.0000,   0,1.0000,   0,1.0000
   80,    97,'1 ', 0.01830, 0.09340,0.02540,   0.00,   0.00,   0.00,  0.00000,  0.00000,  0.00000,  0.00000,1,1,   0.0,   1,1.0000,   0,1.0000,   0,1.0000,   0,1.0000
   80,    98,'1 ', 0.02380, 0.10800,0.02860,   0.00,   0.00,   0.00,  0.00000,  0.00000,  0.00000,  0.00000,1,1,   0.0,   1,1.0000,   0,1.0000,   0,1.0000,   0,1.0000
   80,    99,'1 ', 0.04540, 0.20600,0.05460,   0.00,   0.00,   0.00,  0.00000,  0.00000,  0.00000,  0.00000,1,1,   0.0,   1,1.0000,   0,1.0000,   0,1.0000,   0,1.0000
   82,    83,'1 ', 0.01120, 0.03665,0.03796,   0.00,   0.00,   0.00,  0.00000,  0.00000,  0.00000,  0.00000,1,1,   0.0,   1,1.0000,   0,1.0000,   0,1.0000,   0,1.0000
   82,    96,'1 ', 0.01620, 0.05300,0.05440,   0.00,   0.00,   0.00,  0.00000,  0.00000,  0.00000,  0.00000,1,1,   0.0,   1,1.0000,   0,1.0000,   0,1.0000,   0,1.0000
   83,    84,'1 ', 0.06250, 0.13200,0.02580,   0.00,   0.00,   0.00,  0.00000,  0.00000,  0.00000,  0.00000,1,1,   0.0,   1,1.0000,   0,1.0000,   0,1.0000,   0,1.0000
   83,    85,'1 ', 0.04300, 0.14800,0.03480,   0.00,   0.00,   0.00,  0.00000,  0.00000,  0.00000,  0.00000,1,1,   0.0,   1,1.0000,   0,1.0000,   0,1.0000,   0,1.0000
   84,    85,'1 ', 0.03020, 0.06410,0.01234,   0.00,   0.00,   0.00,  0.00000,  0.00000,  0.00000,  0.00000,1,1,   0.0,   1,1.0000,   0,1.0000,   0,1.0000,   0,1.0000
   85,    86,'1 ', 0.03500, 0.12300,0.02760,   0.00,   0.00,   0.00,  0.00000,  0.00000,  0.00000,  0.00000,1,1,   0.0,   1,1.0000,   0,1.0000,   0,1.0000,   0,1.0000
   85,    88,'1 ', 0.02000, 0.10200,0.02760,   0.00,   0.00,   0.00,  0.00000,  0.00000,  0.00000,  0.00000,1,1,   0.0,   1,1.0000,   0,1.0000,   0,1.0000,   0,1.0000
   85,    89,'1 ', 0.02390, 0.17300,0.04700,   0.00,   0.00,   0.00,  0.00000,  0.00000,  0.00000,  0.00000,1,1,   0.0,   1,1.0000,   0,1.0000,   0,1.0000,   0,1.0000
   86,    87,'1 ', 0.02828, 0.20740,0.04450,   0.00,   0.00,   0.00,  0.00000,  0.00000,  0.00000,  0.00000,1,1,   0.0,   1,1.0000,   0,1.0000,   0,1.0000,   0,1.0000
   88,    89,'1 ', 0.01390, 0.07120,0.01934,   0.00,   0.00,   0.00,  0.00000,  0.00000,  0.00000,  0.00000,1,1,   0.0,   1,1.0000,   0,1.0000,   0,1.0000,   0,1.0000
   89,    90,'1 ', 0.05180, 0.18800,0.05280,   0.00,   0.00,   0.00,  0.00000,  0.00000,  0.00000,  0.00000,1,1,   0.0,   1,1.0000,   0,1.0000,   0,1.0000,   0,1.0000
   89,    90,'2 ', 0.02380, 0.09970,0.10600,   0.00,   0.00,   0.00,  0.00000,  0.00000,  0.00000,  0.00000,1,1,   0.0,   1,1.0000,   0,1.0000,   0,1.0000,   0,1.0000
   89,    92,'1 ', 0.00990, 0.05050,0.05480,   0.00,   0.00,   0.00,  0.00000,  0.00000,  0.00000,  0.00000,1,1,   0.0,   1,1.0000,   0,1.0000,   0,1.0000,   0,1.0000
   89,    92,'2 ', 0.03930, 0.15810,0.04140,   0.00,   0.00,   0.00,  0.00000,  0.00000,  0.00000,  0.00000,1,1,   0.0,   1,1.0000,   0,1.0000,   0,1.0000,   0,1.0000
   90,    91,'1 ', 0.02540, 0.08360,0.02140,   0.00,   0.00,   0.00,  0.00000,  0.00000,  0.00000,  0.00000,1,1,   0.0,   1,1.0000,   0,1.0000,   0,1.0000,   0,1.0000
   91,    92,'1 ', 0.03870, 0.12720,0.03268,   0.00,   0.00,   0.00,  0.00000,  0.00000,  0.00000,  0.00000,1,1,   0.0,   1,1.0000,   0,1.0000,   0,1.0000,   0,1.0000
   92,    93,'1 ', 0.02580, 0.08480,0.02180,   0.00,   0.00,   0.00,  0.00000,  0.00000,  0.00000,  0.00000,1,1,   0.0,   1,1.0000,   0,1.0000,   0,1.0000,   0,1.0000
   92,    94,'1 ', 0.04810, 0.15800,0.04060,   0.00,   0.00,   0.00,  0.00000,  0.00000,  0.00000,  0.00000,1,1,   0.0,   1,1.0000,   0,1.0000,   0,1.0000,   0,1.0000
   92,   100,'1 ', 0.06480, 0.29500,0.04720,   0.00,   0.00,   0.00,  0.00000,  0.00000,  0.00000,  0.00000,1,1,   0.0,   1,1.0000,   0,1.0000,   0,1.0000,   0,1.0000
   92,   102,'1 ', 0.01230, 0.05590,0.01464,   0.00,   0.00,   0.00,  0.00000,  0.00000,  0.00000,  0.00000,1,1,   0.0,   1,1.0000,   0,1.0000,   0,1.0000,   0,1.0000
   93,    94,'1 ', 0.02230, 0.07320,0.01876,   0.00,   0.00,   0.00,  0.00000,  0.00000,  0.00000,  0.00000,1,1,   0.0,   1,1.0000,   0,1.0000,   0,1.0000,   0,1.0000
   94,    95,'1 ', 0.01320, 0.04340,0.01110,   0.00,   0.00,   0.00,  0.00000,  0.00000,  0.00000,  0.00000,1,1,   0.0,   1,1.0000,   0,1.0000,   0,1.0000,   0,1.0000
   94,    96,'1 ', 0.02690, 0.08690,0.02300,   0.00,   0.00,   0.00,  0.00000,  0.00000,  0.00000,  0.00000,1,1,   0.0,   1,1.0000,   0,1.0000,   0,1.0000,   0,1.0000
   94,   100,'1 ', 0.01780, 0.05800,0.06040,   0.00,   0.00,   0.00,  0.00000,  0.00000,  0.00000,  0.00000,1,1,   0.0,   1,1.0000,   0,1.0000,   0,1.0000,   0,1.0000
   95,    96,'1 ', 0.01710, 0.05470,0.01474,   0.00,   0.00,   0.00,  0.00000,  0.00000,  0.00000,  0.00000,1,1,   0.0,   1,1.0000,   0,1.0000,   0,1.0000,   0,1.0000
   96,    97,'1 ', 0.01730, 0.08850,0.02400,   0.00,   0.00,   0.00,  0.00000,  0.00000,  0.00000,  0.00000,1,1,   0.0,   1,1.0000,   0,1.0000,   0,1.0000,   0,1.0000
   98,   100,'1 ', 0.03970, 0.17900,0.04760,   0.00,   0.00,   0.00,  0.00000,  0.00000,  0.00000,  0.00000,1,1,   0.0,   1,1.0000,   0,1.0000,   0,1.0000,   0,1.0000
   99,   100,'1 ', 0.01800, 0.08130,0.02160,   0.00,   0.00,   0.00,  0.00000,  0.00000,  0.00000,  0.00000,1,1,   0.0,   1,1.0000,   0,1.0000,   0,1.0000,   0,1.0000
  100,   101,'1 ', 0.02770, 0.12620,0.03280,   0.00,   0.00,   0.00,  0.00000,  0.00000,  0.00000,  0.00000,1,1,   0.0,   1,1.0000,   0,1.0000,   0,1.0000,   0,1.0000
  100,   103,'1 ', 0.01600, 0.05250,0.05360,   0.00,   0.00,   0.00,  0.00000,  0.00000,  0.00000,  0.00000,1,1,   0.0,   1,1.0000,   0,1.0000,   0,1.0000,   0,1.0000
  100,   104,'1 ', 0.04510, 0.20400,0.05410,   0.00,   0.00,   0.00,  0.00000,  0.00000,  0.00000,  0.00000,1,1,   0.0,   1,1.0000,   0,1.0000,   0,1.0000,   0,1.0000
  100,   106,'1 ', 0.06050, 0.22900,0.06200,   0.00,   0.00,   0.00,  0.00000,  0.00000,  0.00000,  0.00000,1,1,   0.0,   1,1.0000,   0,1.0000,   0,1.0000,   0,1.0000
  101,   102,'1 ', 0.02460, 0.11200,0.02940,   0.00,   0.00,   0.00,  0.00000,  0.00000,  0.00000,  0.00000,1,1,   0.0,   1,1.0000,   0,1.0000,   0,1.0000,   0,1.0000
  103,   104,'1 ', 0.04660, 0.15840,0.04070,   0.00,   0.00,   0.00,  0.00000,  0.00000,  0.00000,  0.00000,1,1,   0.0,   1,1.0000,   0,1.0000,   0,1.0000,   0,1.0000
  103,   105,'1 ', 0.05350, 0.16250,0.04080,   0.00,   0.00,   0.00,  0.00000,  0.00000,  0.00000,  0.00000,1,1,   0.0,   1,1.0000,   0,1.0000,   0,1.0000,   0,1.0000
  103,   110,'1 ', 0.03906, 0.18130,0.04610,   0.00,   0.00,   0.00,  0.00000,  0.00000,  0.00000,  0.00000,1,1,   0.0,   1,1.0000,   0,1.0000,   0,1.0000,   0,1.0000
  104,   105,'1 ', 0.00994, 0.03780,0.00986,   0.00,   0.00,   0.00,  0.00000,  0.00000,  0.00000,  0.00000,1,1,   0.0,   1,1.0000,   0,1.0000,   0,1.0000,   0,1.0000
  105,   106,'1 ', 0.01400, 0.05470,0.01434,   0.00,   0.00,   0.00,  0.00000,  0.00000,  0.00000,  0.00000,1,1,   0.0,   1,1.0000,   0,1.0000,   0,1.0000,   0,1.0000
  105,   107,'1 ', 0.05300, 0.18300,0.04720,   0.00,   0.00,   0.00,  0.00000,  0.00000,  0.00000,  0.00000,1,1,   0.0,   1,1.0000,   0,1.0000,   0,1.0000,   0,1.0000
  105,   108,'1 ', 0.02610, 0.07030,0.01844,   0.00,   0.00,   0.00,  0.00000,  0.00000,  0.00000,  0.00000,1,1,   0.0,   1,1.0000,   0,1.0000,   0,1.0000,   0,1.0000
  106,   107,'1 ', 0.05300, 0.18300,0.04720,   0.00,   0.00,   0.00,  0.00000,  0.00000,  0.00000,  0.00000,1,1,   0.0,   1,1.0000,   0,1.0000,   0,1.0000,   0,1.0000
  108,   109,'1 ', 0.01050, 0.02880,0.00760,   0.00,   0.00,   0.00,  0.00000,  0.00000,  0.00000,  0.00000,1,1,   0.0,   1,1.0000,   0,1.0000,   0,1.0000,   0,1.0000
  109,   110,'1 ', 0.02780, 0.07620,0.02020,   0.00,   0.00,   0.00,  0.00000,  0.00000,  0.00000,  0.00000,1,1,   0.0,   1,1.0000,   0,1.0000,   0,1.0000,   0,1.0000
  110,   111,'1 ', 0.02200, 0.07550,0.02000,   0.00,   0.00,   0.00,  0.00000,  0.00000,  0.00000,  0.00000,1,1,   0.0,   1,1.0000,   0,1.0000,   0,1.0000,   0,1.0000
  110,   112,'1 ', 0.02470, 0.06400,0.06200,   0.00,   0.00,   0.00,  0.00000,  0.00000,  0.00000,  0.00000,1,1,   0.0,   1,1.0000,   0,1.0000,   0,1.0000,   0,1.0000
  114,   115,'1 ', 0.00230, 0.01040,0.00276,   0.00,   0.00,   0.00,  0.00000,  0.00000,  0.00000,  0.00000,1,1,   0.0,   1,1.0000,   0,1.0000,   0,1.0000,   0,1.0000
0 / END OF BRANCH DATA, BEGIN TRANSFORMER DATA
    8,    5,    0,'1 ',1,1,1,  0.00000,  0.00000,2,'        ',1,   1,1.0000,   0,1.0000,   0,1.0000,   0,1.0000
 0.00000, 0.02670, 100.00
0.98500,  0.000,   0.000,   0.00,   0.00,   0.00,0,     0, 1.50000, 0.51000, 1.50000, 0.51000,159, 0, 0.00000, 0.00000
1.00000,  0.000
...